&chem_surfvals_nl

ch4vmr = -1.0D0

co2vmr = -1.0D0

f11vmr = -1.0D0

f12vmr = -1.0D0

n2ovmr = -1.0D0

    flbc_file = '/cluster/shared/noresm/inputdata/atm/waccm/lb/LBC_1750-2015_CMIP6_GlobAnnAvg_c180926.nc'

    flbc_list = 'CO2','CH4','N2O','CFC11eq','CFC12'

    flbc_type = 'SERIAL'

    scenario_ghg = 'CHEM_LBC_FILE'

/

