&aerosol_nl
 sol_factb_interstitial		= 0.1D0
 sol_facti_cloud_borne		= 1.0D0
 sol_factic_interstitial		= 0.4D0
/
&aerotab_ctl_nl
 aerocomk0_file		= '/cluster/shared/noresm/inputdata/noresm-only/atm/cam/camoslo/AeroTab_8jun17/aerocomk0.out'
 aerocomk10_file		= '/cluster/shared/noresm/inputdata/noresm-only/atm/cam/camoslo/AeroTab_8jun17/aerocomk10.out'
 aerocomk1_file		= '/cluster/shared/noresm/inputdata/noresm-only/atm/cam/camoslo/AeroTab_8jun17/aerocomk1.out'
 aerocomk2_file		= '/cluster/shared/noresm/inputdata/noresm-only/atm/cam/camoslo/AeroTab_8jun17/aerocomk2.out'
 aerocomk3_file		= '/cluster/shared/noresm/inputdata/noresm-only/atm/cam/camoslo/AeroTab_8jun17/aerocomk3.out'
 aerocomk4_file		= '/cluster/shared/noresm/inputdata/noresm-only/atm/cam/camoslo/AeroTab_8jun17/aerocomk4.out'
 aerocomk5_file		= '/cluster/shared/noresm/inputdata/noresm-only/atm/cam/camoslo/AeroTab_8jun17/aerocomk5.out'
 aerocomk6_file		= '/cluster/shared/noresm/inputdata/noresm-only/atm/cam/camoslo/AeroTab_8jun17/aerocomk6.out'
 aerocomk7_file		= '/cluster/shared/noresm/inputdata/noresm-only/atm/cam/camoslo/AeroTab_8jun17/aerocomk7.out'
 aerocomk8_file		= '/cluster/shared/noresm/inputdata/noresm-only/atm/cam/camoslo/AeroTab_8jun17/aerocomk8.out'
 aerocomk9_file		= '/cluster/shared/noresm/inputdata/noresm-only/atm/cam/camoslo/AeroTab_8jun17/aerocomk9.out'
 aerodryk0_file		= '/cluster/shared/noresm/inputdata/noresm-only/atm/cam/camoslo/AeroTab_8jun17/aerodryk0.out'
 aerodryk10_file		= '/cluster/shared/noresm/inputdata/noresm-only/atm/cam/camoslo/AeroTab_8jun17/aerodryk10.out'
 aerodryk1_file		= '/cluster/shared/noresm/inputdata/noresm-only/atm/cam/camoslo/AeroTab_8jun17/aerodryk1.out'
 aerodryk2_file		= '/cluster/shared/noresm/inputdata/noresm-only/atm/cam/camoslo/AeroTab_8jun17/aerodryk2.out'
 aerodryk3_file		= '/cluster/shared/noresm/inputdata/noresm-only/atm/cam/camoslo/AeroTab_8jun17/aerodryk3.out'
 aerodryk4_file		= '/cluster/shared/noresm/inputdata/noresm-only/atm/cam/camoslo/AeroTab_8jun17/aerodryk4.out'
 aerodryk5_file		= '/cluster/shared/noresm/inputdata/noresm-only/atm/cam/camoslo/AeroTab_8jun17/aerodryk5.out'
 aerodryk6_file		= '/cluster/shared/noresm/inputdata/noresm-only/atm/cam/camoslo/AeroTab_8jun17/aerodryk6.out'
 aerodryk7_file		= '/cluster/shared/noresm/inputdata/noresm-only/atm/cam/camoslo/AeroTab_8jun17/aerodryk7.out'
 aerodryk8_file		= '/cluster/shared/noresm/inputdata/noresm-only/atm/cam/camoslo/AeroTab_8jun17/aerodryk8.out'
 aerodryk9_file		= '/cluster/shared/noresm/inputdata/noresm-only/atm/cam/camoslo/AeroTab_8jun17/aerodryk9.out'
 kcomp0_file		= '/cluster/shared/noresm/inputdata/noresm-only/atm/cam/camoslo/AeroTab_8jun17/kcomp0.out'
 kcomp10_file		= '/cluster/shared/noresm/inputdata/noresm-only/atm/cam/camoslo/AeroTab_8jun17/kcomp10.out'
 kcomp1_file		= '/cluster/shared/noresm/inputdata/noresm-only/atm/cam/camoslo/AeroTab_8jun17/kcomp1.out'
 kcomp2_file		= '/cluster/shared/noresm/inputdata/noresm-only/atm/cam/camoslo/AeroTab_8jun17/kcomp2.out'
 kcomp3_file		= '/cluster/shared/noresm/inputdata/noresm-only/atm/cam/camoslo/AeroTab_8jun17/kcomp3.out'
 kcomp4_file		= '/cluster/shared/noresm/inputdata/noresm-only/atm/cam/camoslo/AeroTab_8jun17/kcomp4.out'
 kcomp5_file		= '/cluster/shared/noresm/inputdata/noresm-only/atm/cam/camoslo/AeroTab_8jun17/kcomp5.out'
 kcomp6_file		= '/cluster/shared/noresm/inputdata/noresm-only/atm/cam/camoslo/AeroTab_8jun17/kcomp6.out'
 kcomp7_file		= '/cluster/shared/noresm/inputdata/noresm-only/atm/cam/camoslo/AeroTab_8jun17/kcomp7.out'
 kcomp8_file		= '/cluster/shared/noresm/inputdata/noresm-only/atm/cam/camoslo/AeroTab_8jun17/kcomp8.out'
 kcomp9_file		= '/cluster/shared/noresm/inputdata/noresm-only/atm/cam/camoslo/AeroTab_8jun17/kcomp9.out'
 logntilp10_file		= '/cluster/shared/noresm/inputdata/noresm-only/atm/cam/camoslo/AeroTab_8jun17/logntilp10.out'
 logntilp1_file		= '/cluster/shared/noresm/inputdata/noresm-only/atm/cam/camoslo/AeroTab_8jun17/logntilp1.out'
 logntilp2_file		= '/cluster/shared/noresm/inputdata/noresm-only/atm/cam/camoslo/AeroTab_8jun17/logntilp2.out'
 logntilp3_file		= '/cluster/shared/noresm/inputdata/noresm-only/atm/cam/camoslo/AeroTab_8jun17/logntilp3.out'
 logntilp4_file		= '/cluster/shared/noresm/inputdata/noresm-only/atm/cam/camoslo/AeroTab_8jun17/logntilp4.out'
 logntilp5_file		= '/cluster/shared/noresm/inputdata/noresm-only/atm/cam/camoslo/AeroTab_8jun17/logntilp5.out'
 logntilp6_file		= '/cluster/shared/noresm/inputdata/noresm-only/atm/cam/camoslo/AeroTab_8jun17/logntilp6.out'
 logntilp7_file		= '/cluster/shared/noresm/inputdata/noresm-only/atm/cam/camoslo/AeroTab_8jun17/logntilp7.out'
 logntilp8_file		= '/cluster/shared/noresm/inputdata/noresm-only/atm/cam/camoslo/AeroTab_8jun17/logntilp8.out'
 logntilp9_file		= '/cluster/shared/noresm/inputdata/noresm-only/atm/cam/camoslo/AeroTab_8jun17/logntilp9.out'
 lwkcomp0_file		= '/cluster/shared/noresm/inputdata/noresm-only/atm/cam/camoslo/AeroTab_8jun17/lwkcomp0.out'
 lwkcomp10_file		= '/cluster/shared/noresm/inputdata/noresm-only/atm/cam/camoslo/AeroTab_8jun17/lwkcomp10.out'
 lwkcomp1_file		= '/cluster/shared/noresm/inputdata/noresm-only/atm/cam/camoslo/AeroTab_8jun17/lwkcomp1.out'
 lwkcomp2_file		= '/cluster/shared/noresm/inputdata/noresm-only/atm/cam/camoslo/AeroTab_8jun17/lwkcomp2.out'
 lwkcomp3_file		= '/cluster/shared/noresm/inputdata/noresm-only/atm/cam/camoslo/AeroTab_8jun17/lwkcomp3.out'
 lwkcomp4_file		= '/cluster/shared/noresm/inputdata/noresm-only/atm/cam/camoslo/AeroTab_8jun17/lwkcomp4.out'
 lwkcomp5_file		= '/cluster/shared/noresm/inputdata/noresm-only/atm/cam/camoslo/AeroTab_8jun17/lwkcomp5.out'
 lwkcomp6_file		= '/cluster/shared/noresm/inputdata/noresm-only/atm/cam/camoslo/AeroTab_8jun17/lwkcomp6.out'
 lwkcomp7_file		= '/cluster/shared/noresm/inputdata/noresm-only/atm/cam/camoslo/AeroTab_8jun17/lwkcomp7.out'
 lwkcomp8_file		= '/cluster/shared/noresm/inputdata/noresm-only/atm/cam/camoslo/AeroTab_8jun17/lwkcomp8.out'
 lwkcomp9_file		= '/cluster/shared/noresm/inputdata/noresm-only/atm/cam/camoslo/AeroTab_8jun17/lwkcomp9.out'
/
&air_composition_nl
 dry_air_species		= ''
 water_species_in_air		= 'Q','CLDLIQ','CLDICE','RAINQM','SNOWQM'
/
&blj_nl
 do_beljaars		=  .true.  
/
&cam_initfiles_nl
 bnd_topo		= '/cluster/shared/noresm/inputdata/atm/cam/topo/fv_0.9x1.25_nc3000_Nsw042_Nrs008_Co060_Fi001_ZR_sgh30_24km_GRNL_c170103.nc'
 ncdata		= '/cluster/shared/noresm/inputdata/atm/cam/inic/fv/cami-mam3_0000-01-01_0.9x1.25_L32_c141031.nc'
 use_topo_file		=  .true.  
/
&check_energy_nl
 print_energy_errors		= .false.
/
&chem_inparm
 chem_use_chemtrop		= .true.
 clim_soilw_file		= '/cluster/shared/noresm/inputdata/atm/cam/chem/trop_mozart/dvel/clim_soilw.nc'
 depvel_file		= '/cluster/shared/noresm/inputdata/atm/cam/chem/trop_mozart/dvel/depvel_monthly.nc'
 depvel_lnd_file		= '/cluster/shared/noresm/inputdata/atm/cam/chem/trop_mozart/dvel/regrid_vegetation.nc'
 exo_coldens_file		= '/cluster/shared/noresm/inputdata/atm/cam/chem/trop_mozart/phot/exo_coldens.nc'
 ext_frc_specifier		= 'H2O    ->  /cluster/shared/noresm/inputdata/atm/cam/chem/emis/elev/H2OemissionCH4oxidationx2_3D_L70_1849-2015_CMIP6ensAvg_c180927.nc',
         'BC_AX  ->  /cluster/shared/noresm/inputdata/atm/cam/chem/emis/cmip6_emissions_version20190808/emissions_cmip6_noresm2_BC_AX_all_vertical_1849-2015_0.9x1.25_version20190808.nc',
         'BC_N   ->  /cluster/shared/noresm/inputdata/atm/cam/chem/emis/cmip6_emissions_version20190808/emissions_cmip6_noresm2_BC_N_all_vertical_1849-2015_0.9x1.25_version20190808.nc',
         'BC_NI  ->  /cluster/shared/noresm/inputdata/atm/cam/chem/emis/cmip6_emissions_version20190808/emissions_cmip6_noresm2_BC_NI_all_vertical_1849-2015_0.9x1.25_version20190808.nc',
         'OM_NI  ->  /cluster/shared/noresm/inputdata/atm/cam/chem/emis/cmip6_emissions_version20190808/emissions_cmip6_noresm2_OM_NI_all_vertical_1849-2015_0.9x1.25_version20190808.nc',
         'SO2    ->  /cluster/shared/noresm/inputdata/atm/cam/chem/emis/cmip6_emissions_version20190808/emissions_cmip6_noresm2_SO2_all_vertical_1849-2015_0.9x1.25_version20190808.nc',
         'SO4_PR ->  /cluster/shared/noresm/inputdata/atm/cam/chem/emis/cmip6_emissions_version20190808/emissions_cmip6_noresm2_SO4_PR_all_vertical_1849-2015_0.9x1.25_version20190808.nc'
 ext_frc_type		= 'INTERP_MISSING_MONTHS'
 fstrat_list		= ' '
 rsf_file		= '/cluster/shared/noresm/inputdata/atm/waccm/phot/RSF_GT200nm_v3.0_c080811.nc'
 season_wes_file		= '/cluster/shared/noresm/inputdata/atm/cam/chem/trop_mozart/dvel/season_wes.nc'
 srf_emis_specifier		= 'BC_AX  ->  /cluster/shared/noresm/inputdata/atm/cam/chem/emis/cmip6_emissions_version20190808/emissions_cmip6_noresm2_BC_AX_all_surface_1849-2015_0.9x1.25_version20190808.nc',
         'BC_N   ->  /cluster/shared/noresm/inputdata/atm/cam/chem/emis/cmip6_emissions_version20190808/emissions_cmip6_noresm2_BC_N_all_surface_1849-2015_0.9x1.25_version20190808.nc',
         'OM_NI  ->  /cluster/shared/noresm/inputdata/atm/cam/chem/emis/cmip6_emissions_version20190808/emissions_cmip6_noresm2_OM_NI_all_surface_1849-2015_0.9x1.25_version20190808.nc',
         'SO2    ->  /cluster/shared/noresm/inputdata/atm/cam/chem/emis/cmip6_emissions_version20190808/emissions_cmip6_noresm2_SO2_all_surface_1849-2015_0.9x1.25_version20190808.nc',
         'SO4_PR ->  /cluster/shared/noresm/inputdata/atm/cam/chem/emis/cmip6_emissions_version20190808/emissions_cmip6_noresm2_SO4_PR_all_surface_1849-2015_0.9x1.25_version20190808.nc'
 srf_emis_type		= 'INTERP_MISSING_MONTHS'
 tracer_cnst_datapath		= '/cluster/shared/noresm/inputdata/atm/cam/tracer_cnst'
 tracer_cnst_file		= 'tracer_cnst_halons_3D_L70_1849-2015_CMIP6ensAvg_c180927.nc'
 tracer_cnst_filelist		= ''
 tracer_cnst_specifier		= 'O3','OH','NO3','HO2'
 tracer_cnst_type		= 'INTERP_MISSING_MONTHS'
 xactive_prates		= .false.
 xs_long_file		= '/cluster/shared/noresm/inputdata/atm/waccm/phot/temp_prs_GT200nm_JPL10_c140624.nc'
/
&chem_surfvals_nl
 ch4vmr		= -1.0D0
 co2vmr		= -1.0D0
 f11vmr		= -1.0D0
 f12vmr		= -1.0D0
 flbc_file		= '/cluster/shared/noresm/inputdata/atm/waccm/lb/LBC_1750-2015_CMIP6_GlobAnnAvg_c180926.nc'
 flbc_list		= 'CO2','CH4','N2O','CFC11eq','CFC12'
 flbc_type		= 'SERIAL'
 n2ovmr		= -1.0D0
 scenario_ghg		= 'CHEM_LBC_FILE'
/
&circ_diag_nl
 do_circulation_diags		=  .true. 
/
&cldfrc2m_nl
 cldfrc2m_do_subgrid_growth		= .true.
 cldfrc2m_rhmaxi		=   1.0D0  
 cldfrc2m_rhmaxis		=   1.0D0  
 cldfrc2m_rhmini		= 0.90D0
 cldfrc2m_rhminis		=   1.0D0 
/
&cldfrc_nl
 cldfrc_dp1		=  0.10D0 
 cldfrc_dp2		=  500.0D0 
 cldfrc_freeze_dry		= .true.
 cldfrc_ice		= .true.
 cldfrc_icecrit		=  0.93D0 
 cldfrc_iceopt		=  5 
 cldfrc_premib		=  700.0D2 
 cldfrc_premit		=  75000.0D0 
 cldfrc_rhminh		=  0.800D0 
 cldfrc_rhminl		=  0.950D0 
 cldfrc_rhminl_adj_land		=  0.000D0 
 cldfrc_sh1		=  0.04D0 
 cldfrc_sh2		=  500.0D0 
/
&clubb_his_nl
 clubb_history		=  .false. 
 clubb_rad_history		=  .false. 
/
&clubb_params_nl
 clubb_beta		=  2.4     
 clubb_c1		=  1.0     
 clubb_c11		=  0.7D0   
 clubb_c11b		=  0.35D0  
 clubb_c14		=  2.2D0   
 clubb_c1b		=  1.0     
 clubb_c2rt		=  1.0     
 clubb_c2rtthl		=  1.3     
 clubb_c2thl		=  1.0     
 clubb_c4		=  5.2     
 clubb_c7		=  0.5     
 clubb_c7b		=  0.5     
 clubb_c8		=  4.2     
 clubb_c8b		=  0.0     
 clubb_c_k10		=  0.5     
 clubb_c_k10h		=  0.3     
 clubb_c_k9		=  0.25    
 clubb_c_wp2_splat		=  0.0     
 clubb_do_liqsupersat		=  .false. 
 clubb_gamma_coef		= 0.286
 clubb_gamma_coefb		=  0.32    
 clubb_l_brunt_vaisala_freq_moist		=  .false. 
 clubb_l_call_pdf_closure_twice		=  .true.  
 clubb_l_damp_wp2_using_em		=  .false. 
 clubb_l_damp_wp3_skw_squared		=  .false. 
 clubb_l_diag_lscale_from_tau		=  .false. 
 clubb_l_lscale_plume_centered		=  .false. 
 clubb_l_min_wp2_from_corr_wx		=  .false. 
 clubb_l_min_xp2_from_corr_wx		=  .false. 
 clubb_l_predict_upwp_vpwp		=  .false. 
 clubb_l_rcm_supersat_adj		=  .false. 
 clubb_l_stability_correct_tau_zm		=  .true.  
 clubb_l_trapezoidal_rule_zm		=  .true.  
 clubb_l_trapezoidal_rule_zt		=  .true.  
 clubb_l_upwind_xpyp_ta		=  .true.  
 clubb_l_use_c11_richardson		=  .false. 
 clubb_l_use_c7_richardson		=  .false. 
 clubb_l_use_cloud_cover		=  .true.  
 clubb_l_use_ice_latent		=  .false. 
 clubb_l_use_thvm_in_bv_freq		=  .false. 
 clubb_l_vert_avg_closure		=  .true.  
 clubb_lambda0_stability_coef		=  0.04    
 clubb_lmin_coef		=  0.1     
 clubb_mult_coef		=  1.0D0   
 clubb_nu9		=  20.0    
 clubb_skw_denom_coef		=  0.0     
 clubb_skw_max_mag		=  4.5     
 clubb_up2_vp2_factor		=  2.0     
/
&clubbpbl_diff_nl
 clubb_cloudtop_cooling		=  .false. 
 clubb_do_icesuper		=  .false. 
 clubb_expldiff		=  .true.  
 clubb_rainevap_turb		=  .false. 
 clubb_rnevap_effic		=  1.0D0   
 clubb_timestep		=  300.0D0 
/
&conv_water_nl
 conv_water_frac_limit		=  0.01d0  
 conv_water_in_rad		=  1 
/
&cospsimulator_nl
 docosp		= .true.
/
&dust_nl
 dust_emis_fact		= 0.70D0
 soil_erod_file		= '/cluster/shared/noresm/inputdata/atm/cam/dst/dst_source2x2tunedcam6-2x2-04062017.nc'
/
&dyn_fv_inparm
 fv_am_correction		=  .true. 
 fv_am_diag		=        .true. 
 fv_am_fix_lbl		=     .true. 
 fv_am_fixer		=       .true. 
 fv_am_geom_crrct		=  .true. 
 fv_del2coef		= 3.e+5
 fv_div24del2flag		=  4
 fv_fft_flt		= 1
 fv_filtcw		= 0
 fv_high_order_top		=  .false. 
 fv_nspltvrm		= 2
/
&gw_drag_nl
 effgw_rdg_beta		= 1.0D0
 effgw_rdg_beta_max		= 1.0D0
 fcrit2		= 1.0
 gw_apply_tndmax		= .true. 
 gw_dc		= 0.D0
 gw_dc_long		= 0.D0
 gw_limit_tau_without_eff		= .false.
 gw_lndscl_sgh		= .true. 
 gw_oro_south_fac		= 1.d0   
 gw_prndl		= 0.5D0
 n_rdg_beta		= 10
 pgwv		= 0
 pgwv_long		= 0
 rdg_beta_cd_llb		= 1.0D0
 tau_0_ubc		=   .true.   
 trpd_leewv_rdg_beta		= .false.
 use_gw_rdg_beta		= .true.
 use_gw_rdg_gamma		= .false.
/
&gw_rdg_nl
 gw_rdg_c_betamax_ds		=  0.0d0  
 gw_rdg_c_betamax_sm		=  2.0d0  
 gw_rdg_c_gammamax		=  2.0d0  
 gw_rdg_do_adjust_tauoro		= .true.  
 gw_rdg_do_backward_compat		= .false.
 gw_rdg_do_divstream		= .true.
 gw_rdg_do_smooth_regimes		= .false. 
 gw_rdg_fr_c		= 1.0D0
 gw_rdg_frx0		=  2.0d0  
 gw_rdg_frx1		=  3.0d0  
 gw_rdg_orohmin		=  0.01d0 
 gw_rdg_orom2min		=  0.1d0  
 gw_rdg_orostratmin		=  0.002d0
 gw_rdg_orovmin		=  1.0d-3 
/
&micro_mg_nl
 micro_do_massless_droplet_destroyer		=   .false. 
 micro_do_sb_physics		= .false.
 micro_mg_adjust_cpt		= .false.
 micro_mg_berg_eff_factor		=   1.0D0    
 micro_mg_dcs		= 5.5e-4
 micro_mg_do_graupel		=  .false. 
 micro_mg_do_hail		=  .false. 
 micro_mg_num_steps		=                                  1          
 micro_mg_precip_frac_method		= 'in_cloud'
 micro_mg_sub_version		=                                  0          
 micro_mg_version		=                                  2          
/
&nucleate_ice_nl
 nucleate_ice_incloud		= .false.
 nucleate_ice_strat		= 1.0D0
 nucleate_ice_subgrid		= 1.2D0
 nucleate_ice_subgrid_strat		= 1.2D0
 nucleate_ice_use_troplev		= .true.
 use_preexisting_ice		= .true.
/
&oslo_ctl_nl
 aerotab_table_dir		= '/cluster/shared/noresm/inputdata/noresm-only/atm/cam/camoslo/AeroTab_8jun17/'
 dms_cycle_year		= 2000
 dms_source		= 'lana'
 dms_source_type		= 'CYCLICAL'
 ocean_filename		= 'Lana_ocean_1849_2006.nc'
 ocean_filepath		= '/cluster/shared/noresm/inputdata/noresm-only/atm/cam/camoslo'
 opom_cycle_year		= 2000
 opom_source		= 'odowd'
 opom_source_type		= 'CYCLICAL'
 volc_fraction_coarse		= 0.0
/
&phys_ctl_nl
 cam_chempkg		= 'trop_mam_oslo'
 cam_physpkg		= 'cam6'
 cam_snapshot_after_num		=    -1 
 cam_snapshot_before_num		=   -1 
 cld_macmic_num_steps		=  3 
 deep_scheme		= 'ZM'
 dme_energy_adjust		=  .true. 
 do_clubb_sgs		=  .true.  
 eddy_scheme		= 'CLUBB_SGS'
 history_aero_optics		=           .false.  
 history_aerosol		=               .false.  
 history_amwg		=                  .true.   
 history_budget		=                .false.  
 history_chemistry		=             .true.   
 history_chemspecies_srf		=       .true.   
 history_clubb		=                 .true.   
 history_dust		=                  .false.  
 history_eddy		=                  .false.  
 history_vdiag		=                 .false.  
 history_waccm		=                 .false.  
 history_waccmx		=                .false.  
 macrop_scheme		= 'CLUBB_SGS'
 microp_scheme		= 'MG'
 radiation_scheme		= 'rrtmg'
 shallow_scheme		= 'CLUBB_SGS'
 srf_flux_avg		= 0
 use_gw_convect_dp		= .false.
 use_gw_convect_sh		= .false.
 use_gw_front		= .false.
 use_gw_front_igw		= .false.
 use_gw_oro		= .false.
 use_hetfrz_classnuc		= .true.
 use_simple_phys		= .false.
 use_subcol_microp		= .false.
 waccmx_opt		= 'off'
/
&prescribed_ozone_nl
 prescribed_ozone_datapath		= '/cluster/shared/noresm/inputdata/atm/cam/ozone_strataero'
 prescribed_ozone_file		= 'ozone_strataero_WACCM_L70_zm5day_18500101-20150103_CMIP6ensAvg_c180923.nc'
 prescribed_ozone_name		= 'O3'
 prescribed_ozone_type		= 'SERIAL'
/
&prescribed_volcaero_nl
 prescribed_volcaero_datapath		= '/cluster/shared/noresm/inputdata/atm/cam/volc'
 prescribed_volcaero_file		= 'CMIP_CAM6_radiation_v3_reformatted.nc'
/
&qneg_nl
 print_qneg_warn		= 'summary'
/
&rad_cnst_nl
 icecldoptics		= 'mitchell'
 iceopticsfile		= '/cluster/shared/noresm/inputdata/atm/cam/physprops/iceoptics_c080917.nc'
 liqcldoptics		= 'gammadist'
 liqopticsfile		= '/cluster/shared/noresm/inputdata/atm/cam/physprops/F_nwvl200_mu20_lam50_res64_t298_c080428.nc'
 rad_climate		= 'A:Q:H2O', 'N:O2:O2', 'N:CO2:CO2', 'N:ozone:O3', 'N:N2O:N2O', 'N:CH4:CH4', 'N:CFC11:CFC11', 'N:CFC12:CFC12'
/
&radiation_nl
 graupel_in_rad		=  .false. 
/
&ref_pres_nl
 do_molec_press		=  0.1D0 
 molec_diff_bot_press		=  50.D0 
 trop_cloud_top_press		=       1.D2 
/
&solar_data_opts
 solar_htng_spctrl_scl		= .true.
 solar_irrad_data_file		= '/cluster/shared/noresm/inputdata/atm/cam/solar/SolarForcingCMIP6_18491230-22991231_c171031.nc'
/
&spmd_fv_inparm
 npr_yz		= 64,8,8,64
/
&tms_nl
 do_tms		=  .false. 
/
&tropopause_nl
 tropopause_climo_file		= '/cluster/shared/noresm/inputdata/atm/cam/chem/trop_mozart/ub/clim_p_trop.nc'
/
&vert_diff_nl
 diff_cnsrv_mass_check		=  .false. 
 do_iss		=  .true.  
/
&wetdep_inparm
 gas_wetdep_list		= 'DMS','H2O2','H2SO4','SO2'
 gas_wetdep_method		= 'NEU'
/
&zmconv_nl
 zmconv_c0_lnd		=  0.0200D0 
 zmconv_c0_ocn		=  0.0200D0 
 zmconv_ke		=      8.0E-6 
 zmconv_ke_lnd		=  8.0E-6 
 zmconv_microp		=  .false. 
 zmconv_momcd		=  0.7000D0 
 zmconv_momcu		=  0.7000D0 
 zmconv_num_cin		=  1       
 zmconv_org		=  .false. 
/
