! Users should add all user specific namelist changes below in the form of 
! namelist_var = new_namelist_value 
 

 fincl1   =  'SST', 'Z700', 'Z500', 'Z200', 'Z300', 'Z100', 'Z050', 'U200', 'U850', 'V200', 'V850', 'T200', 'T500', 'T700', 'T1000', 'OMEGA500', 'OMEGA850', 'ICEFRAC', 'T1000', 'OMEGA500', 'OMEGA850', 'ICEFRAC'
 fincl2   = 'U:I', 'V:I', 'T:I', 'Q:I', 'PS:I', 'SST:I'
 mfilt     = 12,1
 nhtfrq    = 0,-6

