! Users should add all user specific namelist changes below in the form of 
! namelist_var = new_namelist_value 

 fincl1   =  'SST', 'Z700', 'Z500', 'Z200', 'Z300', 'Z100', 'Z050', 'U200', 'U850', 'V200', 'V850', 'T200', 'T500', 'T700', 'T1000', 'OMEGA500', 'OMEGA850', 'ICEFRAC', 'T1000', 'OMEGA500', 'OMEGA850', 'ICEFRAC'
 mfilt     = 12
 nhtfrq    = 0

 
