&cam_inparm
 dtime = 1800
 
 
 co2vmr=367.0e-6
 start_ymd = 19800101 
 
 

 fincl1   =  'SST', 'Z700', 'Z500', 'Z200', 'Z300', 'Z100', 'Z050', 'U200', 'U850', 'V200', 'V850', 'T200', 'T500', 'T700', 'T1000', 'OMEGA500', 'OMEGA850', 'ICEFRAC', 'T1000', 'OMEGA500', 'OMEGA850', 'ICEFRAC'
 mfilt     = 12
 nhtfrq    = 0

 
  pertlim  = 0

/
