&clm_inparm
 albice = 0.80,0.55
 co2_type = 'diagnostic'
 create_crop_landunit = .false.
 dtime = 1800
 f3dtopo = '/cluster/shared/noresm/inputdata/TaiESM_Input/3D-Topo/topo_3d_0.9x1.25_c150322.nc'
 fatmlndfrc = '/cluster/shared/noresm/inputdata/share/domains/domain.lnd.fv0.9x1.25_gx1v6.090309.nc'
 finidat = '/cluster/shared/noresm/inputdata/ccsm4_init/b40.1850.track1.1deg.006/0863-01-01/b40.1850.track1.1deg.006.clm2.r.0863-01-01-00000.nc'
 fpftcon = '/cluster/shared/noresm/inputdata/lnd/clm2/pftdata/pft-physiology.clm40.c130424.nc'
 fsnowaging = '/cluster/shared/noresm/inputdata/lnd/clm2/snicardata/snicar_drdt_bst_fit_60_c070416.nc'
 fsnowoptics = '/cluster/shared/noresm/inputdata/lnd/clm2/snicardata/snicar_optics_5bnd_c090915.nc'
 fsurdat = '/cluster/shared/noresm/inputdata/lnd/clm2/surfdata/surfdata_0.9x1.25_simyr1850_c110921.nc'
 maxpatch_glcmec = 0
 nsegspc = 20
 rad_3d_topo = .true.
 urban_hac = 'ON_WASTEHEAT'
 urban_traffic = .false.
/
&ndepdyn_nml
 ndepmapalgo = 'bilinear'
 stream_fldfilename_ndep = '/cluster/shared/noresm/inputdata/lnd/clm2/ndepdata/fndep_clm_hist_simyr1849-2006_1.9x2.5_c100428.nc'
 stream_year_first_ndep = 1850
 stream_year_last_ndep = 1850
/
#!--------------------------------------------------------------------------------------------------------------------------
#! lnd_in:: Comment:
#! This namelist was created using the following command-line:
#!     /cluster/projects/nn9385k/people/lama/taiesm/ver170803/models/lnd/clm/bld/CLM build-namelist -infile /cluster/home/earnest/models/NorCPM/cases/TaiESM1_couple/Buildconf/clmconf/cesm_namelist -csmdata /cluster/shared/noresm/inputdata -inputdata /cluster/home/earnest/models/NorCPM/cases/TaiESM1_couple/Buildconf/clm.input_data_list -ignore_ic_year -namelist &clm_inparm start_ymd = 19700101  / -use_case 1850_control -res 0.9x1.25 -clm_start_type default -l_ncpl 48 -lnd_frac /cluster/shared/noresm/inputdata/share/domains/domain.lnd.fv0.9x1.25_gx1v6.090309.nc -glc_nec 0 -co2_ppmv 284.7 -co2_type diagnostic -config /cluster/home/earnest/models/NorCPM/cases/TaiESM1_couple/Buildconf/clmconf/config_cache.xml
#! For help on options use: /cluster/projects/nn9385k/people/lama/taiesm/ver170803/models/lnd/clm/bld/CLM build-namelist -help
#!--------------------------------------------------------------------------------------------------------------------------
