&aerosol_nl
 dust_emis_fact		= 0.35D0
 soil_erod		= '/cluster/shared/noresm/inputdata/atm/cam/dst/dst_0.9x1.25_c100121.nc'
/
&cam_inparm
 bnd_topo		= '/cluster/shared/noresm/inputdata/atm/cam/topo/USGS-gtopo30_0.9x1.25_remap_c051027.nc'
 dtime		= 1800
 fincl1		= 'SST', 'Z700', 'Z500', 'Z200', 'Z300', 'Z100', 'Z050', 'U200', 'U850', 'V200', 'V850', 'T200', 'T500', 'T700',
  'T1000', 'OMEGA500', 'OMEGA850', 'ICEFRAC', 'T1000', 'OMEGA500', 'OMEGA850', 'ICEFRAC'
 fincl2		= 'U', 'V', 'T', 'Q', 'PS', 'T500', 'U500', 'V500', 'Z500', 'T200', 'U200', 'V200', 'Z200', 'Z3', 'PSL', 'PRECT'
 mfilt		= 12,1
 ncdata		= "/cluster/work/users/earnest/archive/C1_FC5_f09/rest/2022-01-01-00000/C1_FC5_f09.cam.i.2022-01-01-00000.nc"
 nhtfrq		= 0,-24
 pertlim		= 11e-9
 print_energy_errors		= .false.
/
&carma_nl
 carma_model		= 'none'
/
&chem_inparm
 aer_drydep_list		= 'bc_a1', 'dst_a1', 'dst_a3', 'ncl_a1', 'ncl_a2', 'ncl_a3', 'num_a1', 'num_a2', 'num_a3', 'pom_a1', 'so4_a1',
  'so4_a2', 'so4_a3', 'soa_a1', 'soa_a2'
 aer_wetdep_list		= 'bc_a1', 'dst_a1', 'dst_a3', 'ncl_a1', 'ncl_a2', 'ncl_a3', 'num_a1', 'num_a2', 'num_a3', 'pom_a1', 'so4_a1',
  'so4_a2', 'so4_a3', 'soa_a1', 'soa_a2'
 clim_soilw_file		= '/cluster/shared/noresm/inputdata/atm/cam/chem/trop_mozart/dvel/clim_soilw.nc'
 depvel_file		= '/cluster/shared/noresm/inputdata/atm/cam/chem/trop_mozart/dvel/depvel_monthly.nc'
 depvel_lnd_file		= '/cluster/shared/noresm/inputdata/atm/cam/chem/trop_mozart/dvel/regrid_vegetation.nc'
 exo_coldens_file		= '/cluster/shared/noresm/inputdata/atm/cam/chem/trop_mozart/phot/exo_coldens.nc'
 ext_frc_specifier		= 'SO2         -> /cluster/shared/noresm/inputdata/atm/cam/chem/trop_mozart_aero/emis/ar5_mam3_so2_elev_2000_c090726.nc',
  'bc_a1       -> /cluster/shared/noresm/inputdata/atm/cam/chem/trop_mozart_aero/emis/ar5_mam3_bc_elev_2000_c090726.nc',
  'num_a1      -> /cluster/shared/noresm/inputdata/atm/cam/chem/trop_mozart_aero/emis/ar5_mam3_num_a1_elev_2000_c090726.nc',
  'num_a2      -> /cluster/shared/noresm/inputdata/atm/cam/chem/trop_mozart_aero/emis/ar5_mam3_num_a2_elev_2000_c090726.nc',
  'pom_a1      -> /cluster/shared/noresm/inputdata/atm/cam/chem/trop_mozart_aero/emis/ar5_mam3_oc_elev_2000_c090726.nc',
  'so4_a1      -> /cluster/shared/noresm/inputdata/atm/cam/chem/trop_mozart_aero/emis/ar5_mam3_so4_a1_elev_2000_c090726.nc',
  'so4_a2      -> /cluster/shared/noresm/inputdata/atm/cam/chem/trop_mozart_aero/emis/ar5_mam3_so4_a2_elev_2000_c090726.nc'
 ext_frc_type		= 'CYCLICAL'
 fstrat_list		= ' '
 rsf_file		= '/cluster/shared/noresm/inputdata/atm/waccm/phot/RSF_GT200nm_v3.0_c080416.nc'
 season_wes_file		= '/cluster/shared/noresm/inputdata/atm/cam/chem/trop_mozart/dvel/season_wes.nc'
 srf_emis_specifier		= 'DMS       -> /cluster/shared/noresm/inputdata/atm/cam/chem/trop_mozart_aero/emis/aerocom_mam3_dms_surf_2000_c090129.nc',
  'SO2       -> /cluster/shared/noresm/inputdata/atm/cam/chem/trop_mozart_aero/emis/ar5_mam3_so2_surf_2000_c090726.nc',
  'SOAG      -> /cluster/shared/noresm/inputdata/atm/cam/chem/trop_mozart_aero/emis/ar5_mam3_soag_1.5_surf_2000_c100217.nc',
  'bc_a1     -> /cluster/shared/noresm/inputdata/atm/cam/chem/trop_mozart_aero/emis/ar5_mam3_bc_surf_2000_c090726.nc',
  'num_a1    -> /cluster/shared/noresm/inputdata/atm/cam/chem/trop_mozart_aero/emis/ar5_mam3_num_a1_surf_2000_c090726.nc',
  'num_a2    -> /cluster/shared/noresm/inputdata/atm/cam/chem/trop_mozart_aero/emis/ar5_mam3_num_a2_surf_2000_c090726.nc',
  'pom_a1    -> /cluster/shared/noresm/inputdata/atm/cam/chem/trop_mozart_aero/emis/ar5_mam3_oc_surf_2000_c090726.nc',
  'so4_a1    -> /cluster/shared/noresm/inputdata/atm/cam/chem/trop_mozart_aero/emis/ar5_mam3_so4_a1_surf_2000_c090726.nc',
  'so4_a2    -> /cluster/shared/noresm/inputdata/atm/cam/chem/trop_mozart_aero/emis/ar5_mam3_so4_a2_surf_2000_c090726.nc'
 srf_emis_type		= 'CYCLICAL'
 tracer_cnst_cycle_yr		= 2000
 tracer_cnst_datapath		= '/cluster/shared/noresm/inputdata/atm/cam/chem/trop_mozart_aero/oxid'
 tracer_cnst_file		= 'oxid_1.9x2.5_L26_1850-2005_c091123.nc'
 tracer_cnst_filelist		= 'oxid_1.9x2.5_L26_clim_list.c090805.txt'
 tracer_cnst_specifier		= 'O3','OH','NO3','HO2'
 tracer_cnst_type		= 'CYCLICAL'
 use_cam_sulfchem		= .false.
 xactive_prates		= .false.
 xs_long_file		= '/cluster/shared/noresm/inputdata/atm/waccm/phot/temp_prs_GT200nm_jpl06_c080930.nc'
/
&chem_surfvals_nl
 ch4vmr		= 1760.0e-9
 co2vmr		= 367.0e-6
 f11vmr		= 653.45e-12
 f12vmr		= 535.0e-12
 flbc_list		= ' '
 n2ovmr		= 316.0e-9
/
&cldfrc_nl
 cldfrc_dp1		=  0.10D0 
 cldfrc_dp2		=  500.0D0 
 cldfrc_freeze_dry		= .true.
 cldfrc_ice		= .true.
 cldfrc_icecrit		=  0.93D0 
 cldfrc_iceopt		=  5 
 cldfrc_premib		=  700.0D2 
 cldfrc_premit		=  40000.0D0 
 cldfrc_rhminh		=  0.800D0 
 cldfrc_rhminl		=  0.8975D0 
 cldfrc_rhminl_adj_land		=  0.100D0 
 cldfrc_sh1		=  0.04D0 
 cldfrc_sh2		=  500.0D0 
/
&cldsed_nl
 cldsed_ice_stokes_fac		=  1.0D0 
/
&cldwat_nl
 cldwat_conke		=   5.0e-6  
 cldwat_icritc		=  18.0e-6  
 cldwat_icritw		=   2.0e-4  
 cldwat_r3lcrit		=   10.0e-6  
/
&clubb_his_nl
 clubb_history		=  .false. 
 clubb_rad_history		=  .false. 
/
&dyn_fv_inparm
 del2coef		= 3.e+5
 div24del2flag		=  4
 fft_flt		= 1
 filtcw		= 0
 nspltvrm		= 2
/
&gw_drag_nl
 fcrit2		= 1.0
/
&hkconv_nl
 hkconv_c0		=   1.0e-4 
 hkconv_cmftau		=  1800.0D0 
/
&modal_aer_opt_nl
 water_refindex_file		= '/cluster/shared/noresm/inputdata/atm/cam/physprops/water_refindex_rrtmg_c080910.nc'
/
&phys_ctl_nl
 cam_chempkg		= 'trop_mam3'
 cam_physpkg		= 'cam5'
 conv_water_in_rad		=  1 
 deep_scheme		= 'ZM'
 do_clubb_sgs		=  .false. 
 do_tms		=  .true.  
 eddy_scheme		= 'diag_TKE'
 history_microphysics		=   .true.  
 macrop_scheme		= 'park'
 microp_scheme		= 'MG'
 radiation_scheme		= 'rrtmg'
 shallow_scheme		= 'UW'
 srf_flux_avg		= 0
 waccmx_opt		= 'off'
/
&physconst_nl
 tms_orocnst		=  1.0D0   
 tms_z0fac		=  0.075D0 
/
&prescribed_ozone_nl
 prescribed_ozone_cycle_yr		= 2000
 prescribed_ozone_datapath		= '/cluster/shared/noresm/inputdata/atm/cam/ozone'
 prescribed_ozone_file		= 'ozone_1.9x2.5_L26_2000clim_c091112.nc'
 prescribed_ozone_name		= 'O3'
 prescribed_ozone_type		= 'CYCLICAL'
/
&rad_cnst_nl
 icecldoptics		= 'mitchell'
 iceopticsfile		= '/cluster/shared/noresm/inputdata/atm/cam/physprops/iceoptics_c080917.nc'
 liqcldoptics		= 'gammadist'
 liqopticsfile		= '/cluster/shared/noresm/inputdata/atm/cam/physprops/F_nwvl200_mu20_lam50_res64_t298_c080428.nc'
 mode_defs		= 'mam3_mode1:accum:=', 'A:num_a1:N:num_c1:num_mr:+',
  'A:so4_a1:N:so4_c1:sulfate:/cluster/shared/noresm/inputdata/atm/cam/physprops/sulfate_rrtmg_c080918.nc:+',
  'A:pom_a1:N:pom_c1:p-organic:/cluster/shared/noresm/inputdata/atm/cam/physprops/ocpho_rrtmg_c101112.nc:+',
  'A:soa_a1:N:soa_c1:s-organic:/cluster/shared/noresm/inputdata/atm/cam/physprops/ocphi_rrtmg_c100508.nc:+',
  'A:bc_a1:N:bc_c1:black-c:/cluster/shared/noresm/inputdata/atm/cam/physprops/bcpho_rrtmg_c100508.nc:+',
  'A:dst_a1:N:dst_c1:dust:/cluster/shared/noresm/inputdata/atm/cam/physprops/dust4_rrtmg_c090521.nc:+',
  'A:ncl_a1:N:ncl_c1:seasalt:/cluster/shared/noresm/inputdata/atm/cam/physprops/ssam_rrtmg_c100508.nc',
  'mam3_mode2:aitken:=', 'A:num_a2:N:num_c2:num_mr:+',
  'A:so4_a2:N:so4_c2:sulfate:/cluster/shared/noresm/inputdata/atm/cam/physprops/sulfate_rrtmg_c080918.nc:+',
  'A:soa_a2:N:soa_c2:s-organic:/cluster/shared/noresm/inputdata/atm/cam/physprops/ocphi_rrtmg_c100508.nc:+',
  'A:ncl_a2:N:ncl_c2:seasalt:/cluster/shared/noresm/inputdata/atm/cam/physprops/ssam_rrtmg_c100508.nc',
  'mam3_mode3:coarse:=', 'A:num_a3:N:num_c3:num_mr:+',
  'A:dst_a3:N:dst_c3:dust:/cluster/shared/noresm/inputdata/atm/cam/physprops/dust4_rrtmg_c090521.nc:+',
  'A:ncl_a3:N:ncl_c3:seasalt:/cluster/shared/noresm/inputdata/atm/cam/physprops/ssam_rrtmg_c100508.nc:+',
  'A:so4_a3:N:so4_c3:sulfate:/cluster/shared/noresm/inputdata/atm/cam/physprops/sulfate_rrtmg_c080918.nc'
 rad_climate		= 'A:Q:H2O', 'N:O2:O2', 'N:CO2:CO2', 'N:ozone:O3', 'N:N2O:N2O', 'N:CH4:CH4', 'N:CFC11:CFC11',
  'N:CFC12:CFC12',
  'M:mam3_mode1:/cluster/shared/noresm/inputdata/atm/cam/physprops/mam3_mode1_rrtmg_c110318.nc',
  'M:mam3_mode2:/cluster/shared/noresm/inputdata/atm/cam/physprops/mam3_mode2_rrtmg_c110318.nc',
  'M:mam3_mode3:/cluster/shared/noresm/inputdata/atm/cam/physprops/mam3_mode3_rrtmg_c110318.nc'
/
&ref_pres_nl
 trop_cloud_top_press		= 1.D2
/
&solar_inparm
 solar_const		= -9999.
 solar_data_file		= '/cluster/shared/noresm/inputdata/atm/cam/solar/solar_ave_sc19-sc23.c090810.nc'
 solar_htng_spctrl_scl		= .true.
/
&spmd_fv_inparm
 npr_yz		= 64,8,8,64
/
&tropopause_nl
 tropopause_climo_file		= '/cluster/shared/noresm/inputdata/atm/cam/chem/trop_mozart/ub/clim_p_trop.nc'
/
&uwshcu_nl
 uwshcu_rpen		=   10.0 
/
&vert_diff_nl
 diff_cnsrv_mass_check		=  .false. 
 do_iss		=  .true.  
 eddy_lbulk_max		= 40.D3
 eddy_leng_max		= 40.D3
 eddy_max_bot_pressure		= 100.D3
 kv_freetrop_scale		= 1.D0
 kv_top_pressure		= 0.D0
 kv_top_scale		= 1.D0
/
&wetdep_inparm
 gas_wetdep_list		= 'H2O2','SO2'
/
&zmconv_nl
 zmconv_c0_lnd		=  0.0059D0 
 zmconv_c0_ocn		=  0.0450D0 
 zmconv_ke		=  1.0E-6 
/
