2023-05-11 13:27:54: case.setup starting 
 ---------------------------------------------------
2023-05-11 13:27:57: case.setup success 
 ---------------------------------------------------
2023-05-11 13:31:13: case.build starting 
 ---------------------------------------------------
2023-05-11 13:31:16: case.build error 
ERROR: Command /cluster/work/users/earnest/temp/NorESM/components/cam/bld/build-namelist -ntasks 512 -csmdata /cluster/shared/noresm/inputdata -infile /cluster/home/earnest/models/NorCPM/cases/N2Anu_f09/Buildconf/camconf/namelist -start_ymd 19790101 -ignore_ic_year -use_case hist_cam6_noresm_frc2 -inputdata /cluster/home/earnest/models/NorCPM/cases/N2Anu_f09/Buildconf/cam.input_data_list -namelist " &atmexp  aerocomk0_file='/cluster/shared/noresm/inputdata/noresm-only/atm/cam/camoslo/AeroTab_8jun17/aerocomk0.out'   aerocomk1_file='/cluster/shared/noresm/inputdata/noresm-only/atm/cam/camoslo/AeroTab_8jun17/aerocomk1.out'   aerocomk2_file='/cluster/shared/noresm/inputdata/noresm-only/atm/cam/camoslo/AeroTab_8jun17/aerocomk2.out'   aerocomk3_file='/cluster/shared/noresm/inputdata/noresm-only/atm/cam/camoslo/AeroTab_8jun17/aerocomk3.out'   aerocomk4_file='/cluster/shared/noresm/inputdata/noresm-only/atm/cam/camoslo/AeroTab_8jun17/aerocomk4.out'   aerocomk5_file='/cluster/shared/noresm/inputdata/noresm-only/atm/cam/camoslo/AeroTab_8jun17/aerocomk5.out'   aerocomk6_file='/cluster/shared/noresm/inputdata/noresm-only/atm/cam/camoslo/AeroTab_8jun17/aerocomk6.out'   aerocomk7_file='/cluster/shared/noresm/inputdata/noresm-only/atm/cam/camoslo/AeroTab_8jun17/aerocomk7.out'   aerocomk8_file='/cluster/shared/noresm/inputdata/noresm-only/atm/cam/camoslo/AeroTab_8jun17/aerocomk8.out'   aerocomk9_file='/cluster/shared/noresm/inputdata/noresm-only/atm/cam/camoslo/AeroTab_8jun17/aerocomk9.out'   aerocomk10_file='/cluster/shared/noresm/inputdata/noresm-only/atm/cam/camoslo/AeroTab_8jun17/aerocomk10.out'   aerodryk0_file='/cluster/shared/noresm/inputdata/noresm-only/atm/cam/camoslo/AeroTab_8jun17/aerodryk0.out'   aerodryk1_file='/cluster/shared/noresm/inputdata/noresm-only/atm/cam/camoslo/AeroTab_8jun17/aerodryk1.out'   aerodryk2_file='/cluster/shared/noresm/inputdata/noresm-only/atm/cam/camoslo/AeroTab_8jun17/aerodryk2.out'   aerodryk3_file='/cluster/shared/noresm/inputdata/noresm-only/atm/cam/camoslo/AeroTab_8jun17/aerodryk3.out'   aerodryk4_file='/cluster/shared/noresm/inputdata/noresm-only/atm/cam/camoslo/AeroTab_8jun17/aerodryk4.out'   aerodryk5_file='/cluster/shared/noresm/inputdata/noresm-only/atm/cam/camoslo/AeroTab_8jun17/aerodryk5.out'   aerodryk6_file='/cluster/shared/noresm/inputdata/noresm-only/atm/cam/camoslo/AeroTab_8jun17/aerodryk6.out'   aerodryk7_file='/cluster/shared/noresm/inputdata/noresm-only/atm/cam/camoslo/AeroTab_8jun17/aerodryk7.out'   aerodryk8_file='/cluster/shared/noresm/inputdata/noresm-only/atm/cam/camoslo/AeroTab_8jun17/aerodryk8.out'   aerodryk9_file='/cluster/shared/noresm/inputdata/noresm-only/atm/cam/camoslo/AeroTab_8jun17/aerodryk9.out'   aerodryk10_file='/cluster/shared/noresm/inputdata/noresm-only/atm/cam/camoslo/AeroTab_8jun17/aerodryk10.out'   kcomp0_file='/cluster/shared/noresm/inputdata/noresm-only/atm/cam/camoslo/AeroTab_8jun17/kcomp0.out'   kcomp1_file='/cluster/shared/noresm/inputdata/noresm-only/atm/cam/camoslo/AeroTab_8jun17/kcomp1.out'   kcomp2_file='/cluster/shared/noresm/inputdata/noresm-only/atm/cam/camoslo/AeroTab_8jun17/kcomp2.out'   kcomp3_file='/cluster/shared/noresm/inputdata/noresm-only/atm/cam/camoslo/AeroTab_8jun17/kcomp3.out'   kcomp4_file='/cluster/shared/noresm/inputdata/noresm-only/atm/cam/camoslo/AeroTab_8jun17/kcomp4.out'   kcomp5_file='/cluster/shared/noresm/inputdata/noresm-only/atm/cam/camoslo/AeroTab_8jun17/kcomp5.out'   kcomp6_file='/cluster/shared/noresm/inputdata/noresm-only/atm/cam/camoslo/AeroTab_8jun17/kcomp6.out'   kcomp7_file='/cluster/shared/noresm/inputdata/noresm-only/atm/cam/camoslo/AeroTab_8jun17/kcomp7.out'   kcomp8_file='/cluster/shared/noresm/inputdata/noresm-only/atm/cam/camoslo/AeroTab_8jun17/kcomp8.out'   kcomp9_file='/cluster/shared/noresm/inputdata/noresm-only/atm/cam/camoslo/AeroTab_8jun17/kcomp9.out'   kcomp10_file='/cluster/shared/noresm/inputdata/noresm-only/atm/cam/camoslo/AeroTab_8jun17/kcomp10.out'   logntilp1_file='/cluster/shared/noresm/inputdata/noresm-only/atm/cam/camoslo/AeroTab_8jun17/logntilp1.out'   logntilp2_file='/cluster/shared/noresm/inputdata/noresm-only/atm/cam/camoslo/AeroTab_8jun17/logntilp2.out'   logntilp3_file='/cluster/shared/noresm/inputdata/noresm-only/atm/cam/camoslo/AeroTab_8jun17/logntilp3.out'   logntilp4_file='/cluster/shared/noresm/inputdata/noresm-only/atm/cam/camoslo/AeroTab_8jun17/logntilp4.out'   logntilp5_file='/cluster/shared/noresm/inputdata/noresm-only/atm/cam/camoslo/AeroTab_8jun17/logntilp5.out'   logntilp6_file='/cluster/shared/noresm/inputdata/noresm-only/atm/cam/camoslo/AeroTab_8jun17/logntilp6.out'   logntilp7_file='/cluster/shared/noresm/inputdata/noresm-only/atm/cam/camoslo/AeroTab_8jun17/logntilp7.out'   logntilp8_file='/cluster/shared/noresm/inputdata/noresm-only/atm/cam/camoslo/AeroTab_8jun17/logntilp8.out'   logntilp9_file='/cluster/shared/noresm/inputdata/noresm-only/atm/cam/camoslo/AeroTab_8jun17/logntilp9.out'   logntilp10_file='/cluster/shared/noresm/inputdata/noresm-only/atm/cam/camoslo/AeroTab_8jun17/logntilp10.out'   lwkcomp0_file='/cluster/shared/noresm/inputdata/noresm-only/atm/cam/camoslo/AeroTab_8jun17/lwkcomp0.out'   lwkcomp1_file='/cluster/shared/noresm/inputdata/noresm-only/atm/cam/camoslo/AeroTab_8jun17/lwkcomp1.out'   lwkcomp2_file='/cluster/shared/noresm/inputdata/noresm-only/atm/cam/camoslo/AeroTab_8jun17/lwkcomp2.out'   lwkcomp3_file='/cluster/shared/noresm/inputdata/noresm-only/atm/cam/camoslo/AeroTab_8jun17/lwkcomp3.out'   lwkcomp4_file='/cluster/shared/noresm/inputdata/noresm-only/atm/cam/camoslo/AeroTab_8jun17/lwkcomp4.out'   lwkcomp5_file='/cluster/shared/noresm/inputdata/noresm-only/atm/cam/camoslo/AeroTab_8jun17/lwkcomp5.out'   lwkcomp6_file='/cluster/shared/noresm/inputdata/noresm-only/atm/cam/camoslo/AeroTab_8jun17/lwkcomp6.out'   lwkcomp7_file='/cluster/shared/noresm/inputdata/noresm-only/atm/cam/camoslo/AeroTab_8jun17/lwkcomp7.out'   lwkcomp8_file='/cluster/shared/noresm/inputdata/noresm-only/atm/cam/camoslo/AeroTab_8jun17/lwkcomp8.out'   lwkcomp9_file='/cluster/shared/noresm/inputdata/noresm-only/atm/cam/camoslo/AeroTab_8jun17/lwkcomp9.out'   lwkcomp10_file='/cluster/shared/noresm/inputdata/noresm-only/atm/cam/camoslo/AeroTab_8jun17/lwkcomp10.out' /"  failed rc=255
out=
err=ERROR(Build::Namelist::_parse_next): expect a F90 constant for a namelist instead got:  ‘/cluster/projects/nn9039k/CAM_Nudging/met_data/era5_PSUV_f09L32_6hrFullFieldSingleRecord/’
 ---------------------------------------------------
