 &cam_inparm
 dtime          =  1800
 cam_branch_file= ' '
 co2vmr         = 379.000e-6
/
